<?xml version="1.0" encoding="UTF-8" standalone="yes"?>
<template encoding-version="1.3">
    <description></description>
    <groupId>0e529929-0189-1000-5b38-87159cc1cc68</groupId>
    <name>scfAPItoKafka</name>
    <snippet>
        <connections>
            <id>1692f063-c249-38f9-0000-000000000000</id>
            <parentGroupId>fa97506b-bb35-3c32-0000-000000000000</parentGroupId>
            <versionedComponentId>1692f063-c249-38f9-acd2-69110ad83fcb</versionedComponentId>
            <backPressureDataSizeThreshold>1 GB</backPressureDataSizeThreshold>
            <backPressureObjectThreshold>10000</backPressureObjectThreshold>
            <destination>
                <groupId>fa97506b-bb35-3c32-0000-000000000000</groupId>
                <id>8ebfe88c-31c5-3787-0000-000000000000</id>
                <type>PROCESSOR</type>
                <versionedComponentId>8ebfe88c-31c5-3787-a8da-10a012c15e8d</versionedComponentId>
            </destination>
            <flowFileExpiration>0 sec</flowFileExpiration>
            <labelIndex>1</labelIndex>
            <loadBalanceCompression>DO_NOT_COMPRESS</loadBalanceCompression>
            <loadBalancePartitionAttribute></loadBalancePartitionAttribute>
            <loadBalanceStatus>LOAD_BALANCE_NOT_CONFIGURED</loadBalanceStatus>
            <loadBalanceStrategy>DO_NOT_LOAD_BALANCE</loadBalanceStrategy>
            <name></name>
            <selectedRelationships>matched</selectedRelationships>
            <source>
                <groupId>fa97506b-bb35-3c32-0000-000000000000</groupId>
                <id>ad0ea811-196b-3032-0000-000000000000</id>
                <type>PROCESSOR</type>
                <versionedComponentId>ad0ea811-196b-3032-98d1-6c4581af4e03</versionedComponentId>
            </source>
            <zIndex>0</zIndex>
        </connections>
        <connections>
            <id>9ac56b9f-2ece-30b6-0000-000000000000</id>
            <parentGroupId>fa97506b-bb35-3c32-0000-000000000000</parentGroupId>
            <versionedComponentId>9ac56b9f-2ece-30b6-a3e6-dbd74b7cc9db</versionedComponentId>
            <backPressureDataSizeThreshold>1 GB</backPressureDataSizeThreshold>
            <backPressureObjectThreshold>10000</backPressureObjectThreshold>
            <destination>
                <groupId>fa97506b-bb35-3c32-0000-000000000000</groupId>
                <id>21c59b8c-7ad4-3dec-0000-000000000000</id>
                <type>PROCESSOR</type>
                <versionedComponentId>21c59b8c-7ad4-3dec-8665-edff32634f54</versionedComponentId>
            </destination>
            <flowFileExpiration>0 sec</flowFileExpiration>
            <labelIndex>1</labelIndex>
            <loadBalanceCompression>DO_NOT_COMPRESS</loadBalanceCompression>
            <loadBalancePartitionAttribute></loadBalancePartitionAttribute>
            <loadBalanceStatus>LOAD_BALANCE_NOT_CONFIGURED</loadBalanceStatus>
            <loadBalanceStrategy>DO_NOT_LOAD_BALANCE</loadBalanceStrategy>
            <name></name>
            <selectedRelationships>Response</selectedRelationships>
            <source>
                <groupId>fa97506b-bb35-3c32-0000-000000000000</groupId>
                <id>152ba333-539e-389a-0000-000000000000</id>
                <type>PROCESSOR</type>
                <versionedComponentId>152ba333-539e-389a-8207-5d8771a03a64</versionedComponentId>
            </source>
            <zIndex>0</zIndex>
        </connections>
        <connections>
            <id>f934c677-321c-389d-0000-000000000000</id>
            <parentGroupId>fa97506b-bb35-3c32-0000-000000000000</parentGroupId>
            <backPressureDataSizeThreshold>1 GB</backPressureDataSizeThreshold>
            <backPressureObjectThreshold>10000</backPressureObjectThreshold>
            <destination>
                <groupId>5b94646f-8f5e-3d29-0000-000000000000</groupId>
                <id>80554679-65e5-3bf7-0000-000000000000</id>
                <type>INPUT_PORT</type>
                <versionedComponentId>9b405748-ac18-36af-bf44-1ca4c0bb262c</versionedComponentId>
            </destination>
            <flowFileExpiration>0 sec</flowFileExpiration>
            <labelIndex>1</labelIndex>
            <loadBalanceCompression>DO_NOT_COMPRESS</loadBalanceCompression>
            <loadBalancePartitionAttribute></loadBalancePartitionAttribute>
            <loadBalanceStatus>LOAD_BALANCE_NOT_CONFIGURED</loadBalanceStatus>
            <loadBalanceStrategy>DO_NOT_LOAD_BALANCE</loadBalanceStrategy>
            <name></name>
            <selectedRelationships>success</selectedRelationships>
            <source>
                <groupId>fa97506b-bb35-3c32-0000-000000000000</groupId>
                <id>8ebfe88c-31c5-3787-0000-000000000000</id>
                <type>PROCESSOR</type>
                <versionedComponentId>8ebfe88c-31c5-3787-a8da-10a012c15e8d</versionedComponentId>
            </source>
            <zIndex>0</zIndex>
        </connections>
        <connections>
            <id>fc239de3-e9a2-3c17-0000-000000000000</id>
            <parentGroupId>fa97506b-bb35-3c32-0000-000000000000</parentGroupId>
            <versionedComponentId>fc239de3-e9a2-3c17-aab0-2f0e5c68661a</versionedComponentId>
            <backPressureDataSizeThreshold>1 GB</backPressureDataSizeThreshold>
            <backPressureObjectThreshold>10000</backPressureObjectThreshold>
            <destination>
                <groupId>fa97506b-bb35-3c32-0000-000000000000</groupId>
                <id>ad0ea811-196b-3032-0000-000000000000</id>
                <type>PROCESSOR</type>
                <versionedComponentId>ad0ea811-196b-3032-98d1-6c4581af4e03</versionedComponentId>
            </destination>
            <flowFileExpiration>0 sec</flowFileExpiration>
            <labelIndex>1</labelIndex>
            <loadBalanceCompression>DO_NOT_COMPRESS</loadBalanceCompression>
            <loadBalancePartitionAttribute></loadBalancePartitionAttribute>
            <loadBalanceStatus>LOAD_BALANCE_NOT_CONFIGURED</loadBalanceStatus>
            <loadBalanceStrategy>DO_NOT_LOAD_BALANCE</loadBalanceStrategy>
            <name></name>
            <selectedRelationships>split</selectedRelationships>
            <source>
                <groupId>fa97506b-bb35-3c32-0000-000000000000</groupId>
                <id>21c59b8c-7ad4-3dec-0000-000000000000</id>
                <type>PROCESSOR</type>
                <versionedComponentId>21c59b8c-7ad4-3dec-8665-edff32634f54</versionedComponentId>
            </source>
            <zIndex>0</zIndex>
        </connections>
        <controllerServices>
            <id>2a89ea4f-3b67-3f18-0000-000000000000</id>
            <parentGroupId>fa97506b-bb35-3c32-0000-000000000000</parentGroupId>
            <versionedComponentId>2a89ea4f-3b67-3f18-8540-d4e128241f0a</versionedComponentId>
            <bulletinLevel>WARN</bulletinLevel>
            <bundle>
                <artifact>nifi-record-serialization-services-nar</artifact>
                <group>org.apache.nifi</group>
                <version>1.22.0</version>
            </bundle>
            <comments></comments>
            <descriptors>
                <entry>
                    <key>schema-access-strategy</key>
                    <value>
                        <name>schema-access-strategy</name>
                    </value>
                </entry>
                <entry>
                    <key>schema-registry</key>
                    <value>
                        <dependencies>
                            <dependentValues>confluent-encoded</dependentValues>
                            <dependentValues>schema-name</dependentValues>
                            <dependentValues>hwx-schema-ref-attributes</dependentValues>
                            <dependentValues>hwx-content-encoded-schema</dependentValues>
                            <propertyName>schema-access-strategy</propertyName>
                        </dependencies>
                        <identifiesControllerService>org.apache.nifi.schemaregistry.services.SchemaRegistry</identifiesControllerService>
                        <name>schema-registry</name>
                    </value>
                </entry>
                <entry>
                    <key>schema-name</key>
                    <value>
                        <dependencies>
                            <dependentValues>schema-name</dependentValues>
                            <propertyName>schema-access-strategy</propertyName>
                        </dependencies>
                        <name>schema-name</name>
                    </value>
                </entry>
                <entry>
                    <key>schema-version</key>
                    <value>
                        <dependencies>
                            <dependentValues>schema-name</dependentValues>
                            <propertyName>schema-access-strategy</propertyName>
                        </dependencies>
                        <name>schema-version</name>
                    </value>
                </entry>
                <entry>
                    <key>schema-branch</key>
                    <value>
                        <dependencies>
                            <dependentValues>schema-name</dependentValues>
                            <propertyName>schema-access-strategy</propertyName>
                        </dependencies>
                        <name>schema-branch</name>
                    </value>
                </entry>
                <entry>
                    <key>schema-text</key>
                    <value>
                        <dependencies>
                            <dependentValues>schema-text-property</dependentValues>
                            <propertyName>schema-access-strategy</propertyName>
                        </dependencies>
                        <name>schema-text</name>
                    </value>
                </entry>
                <entry>
                    <key>schema-inference-cache</key>
                    <value>
                        <dependencies>
                            <dependentValues>infer-schema</dependentValues>
                            <propertyName>schema-access-strategy</propertyName>
                        </dependencies>
                        <identifiesControllerService>org.apache.nifi.serialization.RecordSchemaCacheService</identifiesControllerService>
                        <name>schema-inference-cache</name>
                    </value>
                </entry>
                <entry>
                    <key>starting-field-strategy</key>
                    <value>
                        <name>starting-field-strategy</name>
                    </value>
                </entry>
                <entry>
                    <key>starting-field-name</key>
                    <value>
                        <dependencies>
                            <dependentValues>NESTED_FIELD</dependentValues>
                            <propertyName>starting-field-strategy</propertyName>
                        </dependencies>
                        <name>starting-field-name</name>
                    </value>
                </entry>
                <entry>
                    <key>schema-application-strategy</key>
                    <value>
                        <dependencies>
                            <dependentValues>confluent-encoded</dependentValues>
                            <dependentValues>schema-name</dependentValues>
                            <dependentValues>schema-text-property</dependentValues>
                            <dependentValues>hwx-schema-ref-attributes</dependentValues>
                            <dependentValues>hwx-content-encoded-schema</dependentValues>
                            <propertyName>schema-access-strategy</propertyName>
                        </dependencies>
                        <dependencies>
                            <dependentValues>NESTED_FIELD</dependentValues>
                            <propertyName>starting-field-strategy</propertyName>
                        </dependencies>
                        <name>schema-application-strategy</name>
                    </value>
                </entry>
                <entry>
                    <key>Date Format</key>
                    <value>
                        <name>Date Format</name>
                    </value>
                </entry>
                <entry>
                    <key>Time Format</key>
                    <value>
                        <name>Time Format</name>
                    </value>
                </entry>
                <entry>
                    <key>Timestamp Format</key>
                    <value>
                        <name>Timestamp Format</name>
                    </value>
                </entry>
            </descriptors>
            <name>JsonTreeReader</name>
            <persistsState>false</persistsState>
            <properties>
                <entry>
                    <key>schema-access-strategy</key>
                    <value>infer-schema</value>
                </entry>
                <entry>
                    <key>schema-registry</key>
                </entry>
                <entry>
                    <key>schema-name</key>
                    <value>${schema.name}</value>
                </entry>
                <entry>
                    <key>schema-version</key>
                </entry>
                <entry>
                    <key>schema-branch</key>
                </entry>
                <entry>
                    <key>schema-text</key>
                    <value>${avro.schema}</value>
                </entry>
                <entry>
                    <key>schema-inference-cache</key>
                </entry>
                <entry>
                    <key>starting-field-strategy</key>
                    <value>ROOT_NODE</value>
                </entry>
                <entry>
                    <key>starting-field-name</key>
                </entry>
                <entry>
                    <key>schema-application-strategy</key>
                    <value>SELECTED_PART</value>
                </entry>
                <entry>
                    <key>Date Format</key>
                </entry>
                <entry>
                    <key>Time Format</key>
                </entry>
                <entry>
                    <key>Timestamp Format</key>
                </entry>
            </properties>
            <state>ENABLED</state>
            <type>org.apache.nifi.json.JsonTreeReader</type>
        </controllerServices>
        <controllerServices>
            <id>ad028236-28c7-36c8-0000-000000000000</id>
            <parentGroupId>fa97506b-bb35-3c32-0000-000000000000</parentGroupId>
            <versionedComponentId>ad028236-28c7-36c8-956c-606216d58657</versionedComponentId>
            <bulletinLevel>WARN</bulletinLevel>
            <bundle>
                <artifact>nifi-record-serialization-services-nar</artifact>
                <group>org.apache.nifi</group>
                <version>1.22.0</version>
            </bundle>
            <comments></comments>
            <descriptors>
                <entry>
                    <key>Schema Write Strategy</key>
                    <value>
                        <name>Schema Write Strategy</name>
                    </value>
                </entry>
                <entry>
                    <key>schema-cache</key>
                    <value>
                        <identifiesControllerService>org.apache.nifi.serialization.RecordSchemaCacheService</identifiesControllerService>
                        <name>schema-cache</name>
                    </value>
                </entry>
                <entry>
                    <key>schema-protocol-version</key>
                    <value>
                        <dependencies>
                            <dependentValues>hwx-schema-ref-attributes</dependentValues>
                            <dependentValues>hwx-content-encoded-schema</dependentValues>
                            <propertyName>Schema Write Strategy</propertyName>
                        </dependencies>
                        <name>schema-protocol-version</name>
                    </value>
                </entry>
                <entry>
                    <key>schema-access-strategy</key>
                    <value>
                        <name>schema-access-strategy</name>
                    </value>
                </entry>
                <entry>
                    <key>schema-registry</key>
                    <value>
                        <dependencies>
                            <dependentValues>confluent-encoded</dependentValues>
                            <dependentValues>schema-name</dependentValues>
                            <dependentValues>hwx-schema-ref-attributes</dependentValues>
                            <dependentValues>hwx-content-encoded-schema</dependentValues>
                            <propertyName>schema-access-strategy</propertyName>
                        </dependencies>
                        <identifiesControllerService>org.apache.nifi.schemaregistry.services.SchemaRegistry</identifiesControllerService>
                        <name>schema-registry</name>
                    </value>
                </entry>
                <entry>
                    <key>schema-name</key>
                    <value>
                        <dependencies>
                            <dependentValues>schema-name</dependentValues>
                            <propertyName>schema-access-strategy</propertyName>
                        </dependencies>
                        <name>schema-name</name>
                    </value>
                </entry>
                <entry>
                    <key>schema-version</key>
                    <value>
                        <dependencies>
                            <dependentValues>schema-name</dependentValues>
                            <propertyName>schema-access-strategy</propertyName>
                        </dependencies>
                        <name>schema-version</name>
                    </value>
                </entry>
                <entry>
                    <key>schema-branch</key>
                    <value>
                        <dependencies>
                            <dependentValues>schema-name</dependentValues>
                            <propertyName>schema-access-strategy</propertyName>
                        </dependencies>
                        <name>schema-branch</name>
                    </value>
                </entry>
                <entry>
                    <key>schema-text</key>
                    <value>
                        <dependencies>
                            <dependentValues>schema-text-property</dependentValues>
                            <propertyName>schema-access-strategy</propertyName>
                        </dependencies>
                        <name>schema-text</name>
                    </value>
                </entry>
                <entry>
                    <key>Date Format</key>
                    <value>
                        <name>Date Format</name>
                    </value>
                </entry>
                <entry>
                    <key>Time Format</key>
                    <value>
                        <name>Time Format</name>
                    </value>
                </entry>
                <entry>
                    <key>Timestamp Format</key>
                    <value>
                        <name>Timestamp Format</name>
                    </value>
                </entry>
                <entry>
                    <key>Pretty Print JSON</key>
                    <value>
                        <name>Pretty Print JSON</name>
                    </value>
                </entry>
                <entry>
                    <key>suppress-nulls</key>
                    <value>
                        <name>suppress-nulls</name>
                    </value>
                </entry>
                <entry>
                    <key>output-grouping</key>
                    <value>
                        <name>output-grouping</name>
                    </value>
                </entry>
                <entry>
                    <key>compression-format</key>
                    <value>
                        <name>compression-format</name>
                    </value>
                </entry>
                <entry>
                    <key>compression-level</key>
                    <value>
                        <dependencies>
                            <dependentValues>gzip</dependentValues>
                            <propertyName>compression-format</propertyName>
                        </dependencies>
                        <name>compression-level</name>
                    </value>
                </entry>
            </descriptors>
            <name>JsonRecordSetWriter</name>
            <persistsState>false</persistsState>
            <properties>
                <entry>
                    <key>Schema Write Strategy</key>
                    <value>no-schema</value>
                </entry>
                <entry>
                    <key>schema-cache</key>
                </entry>
                <entry>
                    <key>schema-protocol-version</key>
                    <value>1</value>
                </entry>
                <entry>
                    <key>schema-access-strategy</key>
                    <value>inherit-record-schema</value>
                </entry>
                <entry>
                    <key>schema-registry</key>
                </entry>
                <entry>
                    <key>schema-name</key>
                    <value>${schema.name}</value>
                </entry>
                <entry>
                    <key>schema-version</key>
                </entry>
                <entry>
                    <key>schema-branch</key>
                </entry>
                <entry>
                    <key>schema-text</key>
                    <value>${avro.schema}</value>
                </entry>
                <entry>
                    <key>Date Format</key>
                </entry>
                <entry>
                    <key>Time Format</key>
                </entry>
                <entry>
                    <key>Timestamp Format</key>
                </entry>
                <entry>
                    <key>Pretty Print JSON</key>
                    <value>false</value>
                </entry>
                <entry>
                    <key>suppress-nulls</key>
                    <value>never-suppress</value>
                </entry>
                <entry>
                    <key>output-grouping</key>
                    <value>output-oneline</value>
                </entry>
                <entry>
                    <key>compression-format</key>
                    <value>none</value>
                </entry>
                <entry>
                    <key>compression-level</key>
                    <value>1</value>
                </entry>
            </properties>
            <state>ENABLED</state>
            <type>org.apache.nifi.json.JsonRecordSetWriter</type>
        </controllerServices>
        <controllerServices>
            <id>c3fa9893-1768-3afd-0000-000000000000</id>
            <parentGroupId>fa97506b-bb35-3c32-0000-000000000000</parentGroupId>
            <versionedComponentId>c3fa9893-1768-3afd-adc1-60709ff65096</versionedComponentId>
            <bulletinLevel>WARN</bulletinLevel>
            <bundle>
                <artifact>nifi-record-serialization-services-nar</artifact>
                <group>org.apache.nifi</group>
                <version>1.22.0</version>
            </bundle>
            <comments></comments>
            <descriptors>
                <entry>
                    <key>schema-access-strategy</key>
                    <value>
                        <name>schema-access-strategy</name>
                    </value>
                </entry>
                <entry>
                    <key>schema-registry</key>
                    <value>
                        <dependencies>
                            <dependentValues>confluent-encoded</dependentValues>
                            <dependentValues>schema-name</dependentValues>
                            <dependentValues>hwx-schema-ref-attributes</dependentValues>
                            <dependentValues>hwx-content-encoded-schema</dependentValues>
                            <propertyName>schema-access-strategy</propertyName>
                        </dependencies>
                        <identifiesControllerService>org.apache.nifi.schemaregistry.services.SchemaRegistry</identifiesControllerService>
                        <name>schema-registry</name>
                    </value>
                </entry>
                <entry>
                    <key>schema-name</key>
                    <value>
                        <dependencies>
                            <dependentValues>schema-name</dependentValues>
                            <propertyName>schema-access-strategy</propertyName>
                        </dependencies>
                        <name>schema-name</name>
                    </value>
                </entry>
                <entry>
                    <key>schema-version</key>
                    <value>
                        <dependencies>
                            <dependentValues>schema-name</dependentValues>
                            <propertyName>schema-access-strategy</propertyName>
                        </dependencies>
                        <name>schema-version</name>
                    </value>
                </entry>
                <entry>
                    <key>schema-branch</key>
                    <value>
                        <dependencies>
                            <dependentValues>schema-name</dependentValues>
                            <propertyName>schema-access-strategy</propertyName>
                        </dependencies>
                        <name>schema-branch</name>
                    </value>
                </entry>
                <entry>
                    <key>schema-text</key>
                    <value>
                        <dependencies>
                            <dependentValues>schema-text-property</dependentValues>
                            <propertyName>schema-access-strategy</propertyName>
                        </dependencies>
                        <name>schema-text</name>
                    </value>
                </entry>
                <entry>
                    <key>schema-inference-cache</key>
                    <value>
                        <dependencies>
                            <dependentValues>infer-schema</dependentValues>
                            <propertyName>schema-access-strategy</propertyName>
                        </dependencies>
                        <identifiesControllerService>org.apache.nifi.serialization.RecordSchemaCacheService</identifiesControllerService>
                        <name>schema-inference-cache</name>
                    </value>
                </entry>
                <entry>
                    <key>starting-field-strategy</key>
                    <value>
                        <name>starting-field-strategy</name>
                    </value>
                </entry>
                <entry>
                    <key>starting-field-name</key>
                    <value>
                        <dependencies>
                            <dependentValues>NESTED_FIELD</dependentValues>
                            <propertyName>starting-field-strategy</propertyName>
                        </dependencies>
                        <name>starting-field-name</name>
                    </value>
                </entry>
                <entry>
                    <key>schema-application-strategy</key>
                    <value>
                        <dependencies>
                            <dependentValues>confluent-encoded</dependentValues>
                            <dependentValues>schema-name</dependentValues>
                            <dependentValues>schema-text-property</dependentValues>
                            <dependentValues>hwx-schema-ref-attributes</dependentValues>
                            <dependentValues>hwx-content-encoded-schema</dependentValues>
                            <propertyName>schema-access-strategy</propertyName>
                        </dependencies>
                        <dependencies>
                            <dependentValues>NESTED_FIELD</dependentValues>
                            <propertyName>starting-field-strategy</propertyName>
                        </dependencies>
                        <name>schema-application-strategy</name>
                    </value>
                </entry>
                <entry>
                    <key>Date Format</key>
                    <value>
                        <name>Date Format</name>
                    </value>
                </entry>
                <entry>
                    <key>Time Format</key>
                    <value>
                        <name>Time Format</name>
                    </value>
                </entry>
                <entry>
                    <key>Timestamp Format</key>
                    <value>
                        <name>Timestamp Format</name>
                    </value>
                </entry>
            </descriptors>
            <name>JsonTreeReader</name>
            <persistsState>false</persistsState>
            <properties>
                <entry>
                    <key>schema-access-strategy</key>
                    <value>infer-schema</value>
                </entry>